units(length='cm', time='s', quantity='mol', act_energy='kJ/mol')

ideal_gas(name='gas',
          elements="H O N",
          species="""H2    H     O2    O     OH    
                     HO2   H2O2  H2O   N2""",
          reactions='all',
          initial_state=state(temperature=300.0, pressure=OneAtm))

#-------------------------------------------------------------------------------
# Species data
#-------------------------------------------------------------------------------

species(name=u'H2',
        atoms='H:2',
        thermo=(NASA([300.00, 1000.00],
                     [ 2.34433112E+00,  7.98052075E-03, -1.94781510E-05,
                       2.01572094E-08, -7.37611761E-12, -9.17935173E+02,
                       6.83010238E-01]),
                NASA([1000.00, 5000.00],
                     [ 3.33727920E+00, -4.94024731E-05,  4.99456778E-07,
                      -1.79566394E-10,  2.00255376E-14, -9.50158922E+02,
                      -3.20502331E+00])),
        note=u'000000')

species(name=u'H',
        atoms='H:1',
        thermo=(NASA([300.00, 1000.00],
                     [ 2.50000000E+00,  7.05332819E-13, -1.99591964E-15,
                       2.30081632E-18, -9.27732332E-22,  2.54736599E+04,
                      -4.46682853E-01]),
                NASA([1000.00, 5000.00],
                     [ 2.50000001E+00, -2.30842973E-11,  1.61561948E-14,
                      -4.73515235E-18,  4.98197357E-22,  2.54736599E+04,
                      -4.46682914E-01])),
        note=u'000000')

species(name=u'O2',
        atoms='O:2',
        thermo=(NASA([300.00, 1000.00],
                     [ 3.78245636E+00, -2.99673416E-03,  9.84730201E-06,
                      -9.68129509E-09,  3.24372837E-12, -1.06394356E+03,
                       3.65767573E+00]),
                NASA([1000.00, 5000.00],
                     [ 3.28253784E+00,  1.48308754E-03, -7.57966669E-07,
                       2.09470555E-10, -2.16717794E-14, -1.08845772E+03,
                       5.45323129E+00])),
        note=u'000000')

species(name=u'O',
        atoms='O:1',
        thermo=(NASA([300.00, 1000.00],
                     [ 3.16826710E+00, -3.27931884E-03,  6.64306396E-06,
                      -6.12806624E-09,  2.11265971E-12,  2.91222592E+04,
                       2.05193346E+00]),
                NASA([1000.00, 5000.00],
                     [ 2.56942078E+00, -8.59741137E-05,  4.19484589E-08,
                      -1.00177799E-11,  1.22833691E-15,  2.92175791E+04,
                       4.78433864E+00])),
        note=u'000000')

species(name=u'OH',
        atoms='H:1 O:1',
        thermo=(NASA([300.00, 1000.00],
                     [ 4.12530561E+00, -3.22544939E-03,  6.52764691E-06,
                      -5.79853643E-09,  2.06237379E-12,  3.38153812E+03,
                      -6.90432960E-01]),
                NASA([1000.00, 5000.00],
                     [ 2.86472886E+00,  1.05650448E-03, -2.59082758E-07,
                       3.05218674E-11, -1.33195876E-15,  3.71885774E+03,
                       5.70164073E+00])),
        note=u'000000')

species(name=u'HO2',
        atoms='H:1 O:2',
        thermo=(NASA([300.00, 1000.00],
                     [ 4.30179801E+00, -4.74912051E-03,  2.11582891E-05,
                      -2.42763894E-08,  9.29225124E-12,  2.94808040E+02,
                       3.71666245E+00]),
                NASA([1000.00, 5000.00],
                     [ 4.01721090E+00,  2.23982013E-03, -6.33658150E-07,
                       1.14246370E-10, -1.07908535E-14,  1.11856713E+02,
                       3.78510215E+00])),
        note=u'000000')

species(name=u'H2O2',
        atoms='H:2 O:2',
        thermo=(NASA([300.00, 1000.00],
                     [ 4.27611269E+00, -5.42822417E-04,  1.67335701E-05,
                      -2.15770813E-08,  8.62454363E-12, -1.77025821E+04,
                       3.43505074E+00]),
                NASA([1000.00, 5000.00],
                     [ 4.16500285E+00,  4.90831694E-03, -1.90139225E-06,
                       3.71185986E-10, -2.87908305E-14, -1.78617877E+04,
                       2.91615662E+00])),
        note=u'000000')

species(name=u'H2O',
        atoms='H:2 O:1',
        thermo=(NASA([300.00, 1000.00],
                     [ 4.19864056E+00, -2.03643410E-03,  6.52040211E-06,
                      -5.48797062E-09,  1.77197817E-12, -3.02937267E+04,
                      -8.49032208E-01]),
                NASA([1000.00, 5000.00],
                     [ 3.03399249E+00,  2.17691804E-03, -1.64072518E-07,
                      -9.70419870E-11,  1.68200992E-14, -3.00042971E+04,
                       4.96677010E+00])),
        note=u'000000')

species(name=u'CO',
        atoms='C:1 O:1',
        thermo=(NASA([300.00, 1000.00],
                     [ 3.57953347E+00, -6.10353680E-04,  1.01681433E-06,
                       9.07005884E-10, -9.04424499E-13, -1.43440860E+04,
                       3.50840928E+00]),
                NASA([1000.00, 5000.00],
                     [ 2.71518561E+00,  2.06252743E-03, -9.98825771E-07,
                       2.30053008E-10, -2.03647716E-14, -1.41518724E+04,
                       7.81868772E+00])),
        note=u'000000')

species(name=u'CO2',
        atoms='C:1 O:2',
        thermo=(NASA([300.00, 1000.00],
                     [ 2.35677352E+00,  8.98459677E-03, -7.12356269E-06,
                       2.45919022E-09, -1.43699548E-13, -4.83719697E+04,
                       9.90105222E+00]),
                NASA([1000.00, 5000.00],
                     [ 3.85746029E+00,  4.41437026E-03, -2.21481404E-06,
                       5.23490188E-10, -4.72084164E-14, -4.87591660E+04,
                       2.27163806E+00])),
        note=u'000000')

species(name=u'HCO',
        atoms='H:1 C:1 O:1',
        thermo=(NASA([300.00, 1000.00],
                     [ 4.22118584E+00, -3.24392532E-03,  1.37799446E-05,
                      -1.33144093E-08,  4.33768865E-12,  3.83956496E+03,
                       3.39437243E+00]),
                NASA([1000.00, 5000.00],
                     [ 2.77217438E+00,  4.95695526E-03, -2.48445613E-06,
                       5.89161778E-10, -5.33508711E-14,  4.01191815E+03,
                       9.79834492E+00])),
        note=u'000000')

species(name=u'N2',
        atoms='N:2',
        thermo=(NASA([300.00, 1000.00],
                     [ 3.29867700E+00,  1.40824040E-03, -3.96322200E-06,
                       5.64151500E-09, -2.44485400E-12, -1.02089990E+03,
                       3.95037200E+00]),
                NASA([1000.00, 5000.00],
                     [ 2.92664000E+00,  1.48797680E-03, -5.68476000E-07,
                       1.00970380E-10, -6.75335100E-15, -9.22797700E+02,
                       5.98052800E+00])),
        note=u'000000')

#-------------------------------------------------------------------------------
# Reaction data
#-------------------------------------------------------------------------------

# Reaction 1
reaction('H + O2 <=> OH + O', [3.520000e+16, -0.7, 71.42])

# Reaction 2
reaction('H2 + O <=> OH + H', [5.060000e+04, 2.67, 26.32])

# Reaction 3
reaction('H2 + OH <=> H2O + H', [1.170000e+09, 1.3, 15.21])

# Reaction 4
reaction('H2O + O <=> 2 OH', [7.000000e+05, 2.33, 60.87])

# Reaction 5
three_body_reaction('H + H + M <=> H2 + M', [1.300000e+18, -1.0, 0.0],
                    efficiencies='H2:2.5 H2O:12.0')

# Reaction 6
three_body_reaction('H + OH + M <=> H2O + M', [4.000000e+22, -2.0, 0.0],
                    efficiencies='H2:2.5 H2O:12.0')

# Reaction 7
three_body_reaction('O + O + M <=> O2 + M', [6.170000e+15, -0.5, 0.0],
                    efficiencies='H2:2.5 H2O:12.0')

# Reaction 8
three_body_reaction('H + O + M <=> OH + M', [4.710000e+18, -1.0, 0.0],
                    efficiencies='H2:2.5 H2O:12.0')

# Reaction 9
three_body_reaction('O + OH + M <=> HO2 + M', [8.000000e+15, 0.0, 0.0],
                    efficiencies='H2:2.5 H2O:12.0')

# Reaction 10
falloff_reaction('H + O2 (+ M) <=> HO2 (+ M)',
                 kf=[4.650000e+12, 0.44, 0.0],
                 kf0=[5.750000e+19, -1.4, 0.0],
                 efficiencies='H2:2.5 H2O:16.0',
                 falloff=Troe(A=0.5, T3=1e-30, T1=1e+30))

# Reaction 11
reaction('HO2 + H <=> 2 OH', [7.080000e+13, 0.0, 1.234])

# Reaction 12
reaction('HO2 + H <=> H2 + O2', [1.660000e+13, 0.0, 3.443])

# Reaction 13
reaction('HO2 + H <=> H2O + O', [3.100000e+13, 0.0, 7.2])

# Reaction 14
reaction('HO2 + O <=> OH + O2', [2.000000e+13, 0.0, 0.0])

# Reaction 15
reaction('HO2 + OH <=> H2O + O2', [4.500000e+14, 0.0, 45.73],
         options='duplicate')

# Reaction 16
reaction('HO2 + OH <=> H2O + O2', [2.980000e+13, 0.0, -2.08],
         options='duplicate')

# Reaction 17
falloff_reaction('OH + OH (+ M) <=> H2O2 (+ M)',
                 kf=[9.550000e+13, -0.27, 0.0],
                 kf0=[2.760000e+25, -3.2, 0.0],
                 efficiencies='H2:2.5 H2O:6.0',
                 falloff=Troe(A=0.57, T1=1e-30, T3=1e+30))

# Reaction 18
reaction('HO2 + HO2 <=> H2O2 + O2', [1.940000e+11, 0.0, -5.895],
         options='duplicate')

# Reaction 19
reaction('HO2 + HO2 <=> H2O2 + O2', [1.030000e+14, 0.0, 46.2],
         options='duplicate')

# Reaction 20
reaction('H2O2 + H <=> HO2 + H2', [2.300000e+13, 0.0, 33.263])

# Reaction 21
reaction('H2O2 + H <=> H2O + OH', [1.000000e+13, 0.0, 15.0])

# Reaction 22
reaction('H2O2 + OH <=> H2O + HO2', [7.590000e+13, 0.0, 30.43],
         options='duplicate')

# Reaction 23
reaction('H2O2 + OH <=> H2O + HO2', [1.740000e+12, 0.0, 1.33],
         options='duplicate')

# Reaction 24
reaction('H2O2 + O <=> HO2 + OH', [9.630000e+06, 2.0, 16.7])
